Version 4.1
SHEET 1 2776 680
WIRE 544 -336 432 -336
WIRE 432 -272 432 -336
WIRE 640 -256 544 -256
WIRE 640 -224 624 -224
WIRE 848 -208 768 -208
WIRE 1184 -208 1152 -208
WIRE 1280 -208 1264 -208
WIRE 1312 -208 1280 -208
WIRE 400 -192 320 -192
WIRE 624 -160 624 -224
WIRE 848 -160 848 -208
WIRE 848 -160 624 -160
WIRE 1488 -160 1440 -160
WIRE 432 -128 432 -192
WIRE 464 -128 432 -128
WIRE 544 -128 544 -176
WIRE 544 -128 464 -128
WIRE 320 -112 320 -192
WIRE 1488 -112 1488 -160
WIRE 1520 -112 1488 -112
WIRE 1552 -112 1520 -112
WIRE 1312 -80 1312 -176
WIRE 1312 -80 1280 -80
WIRE 1344 -80 1312 -80
WIRE 1488 -80 1488 -112
WIRE 1488 -80 1424 -80
WIRE 400 -32 400 -192
WIRE 656 -32 400 -32
WIRE 896 -16 752 -16
WIRE 1312 -16 1312 -80
WIRE 1344 -16 1312 -16
WIRE 1488 -16 1488 -80
WIRE 1488 -16 1408 -16
WIRE 320 0 320 -32
WIRE 320 0 16 0
WIRE 1776 0 1648 0
WIRE 1904 0 1872 0
WIRE 2000 0 1904 0
WIRE 2112 0 2080 0
WIRE 2160 0 2112 0
WIRE 2688 0 2160 0
WIRE 2736 0 2688 0
WIRE 320 16 320 0
WIRE 1648 32 1648 0
WIRE 2112 32 2112 0
WIRE 2160 32 2160 0
WIRE 2736 32 2736 0
WIRE 1856 48 1808 48
WIRE 320 128 320 96
WIRE 352 128 320 128
WIRE 448 128 432 128
WIRE 752 128 752 64
WIRE 848 128 752 128
WIRE 16 144 16 0
WIRE 64 144 16 144
WIRE 656 160 656 -32
WIRE 848 160 656 160
WIRE 448 176 448 128
WIRE 480 176 448 176
WIRE 496 176 480 176
WIRE 1008 176 976 176
WIRE 1648 176 1648 112
WIRE 1776 176 1648 176
WIRE 1904 176 1904 64
WIRE 1904 176 1776 176
WIRE 2112 176 2112 96
WIRE 2112 176 1904 176
WIRE 2160 176 2160 96
WIRE 2160 176 2112 176
WIRE 2352 176 2160 176
WIRE 2576 176 2432 176
WIRE 2736 176 2736 112
WIRE 2736 176 2576 176
WIRE 320 192 320 128
WIRE 320 192 192 192
WIRE 656 192 656 160
WIRE 656 192 624 192
WIRE 480 304 480 176
WIRE 512 304 480 304
WIRE 656 304 656 192
WIRE 656 304 576 304
FLAG 432 -192 new
FLAG 432 -272 p
FLAG 192 128 p
FLAG 624 128 p
FLAG 624 160 new
FLAG 192 160 new
FLAG 768 -272 p
FLAG 768 -240 new
FLAG 848 -160 g
FLAG 464 -128 0
FLAG 496 144 g
FLAG 64 176 g
FLAG 976 112 p
FLAG 976 144 new
FLAG 1008 176 out
FLAG 1776 176 0
FLAG 1648 32 p
FLAG 1648 112 new
FLAG 2576 176 i_sense
FLAG 2688 0 v_sense
FLAG 896 -16 vout
FLAG 1440 -224 p
FLAG 1440 -192 new
FLAG 1280 -288 0
FLAG 1072 -208 0
FLAG 1280 -160 i_sense
FLAG 1520 -112 vout
FLAG 1808 128 out
SYMBOL OPAx197 128 160 R0
SYMATTR InstName U1
SYMBOL OPAx197 560 160 R0
SYMATTR InstName U2
SYMBOL res 448 112 R90
WINDOW 0 0 56 VBottom 2
WINDOW 3 32 56 VTop 2
SYMATTR InstName R1
SYMATTR Value 2.2k
SYMBOL res 336 112 R180
WINDOW 0 36 76 Left 2
WINDOW 3 36 40 Left 2
SYMATTR InstName R2
SYMATTR Value 11K
SYMBOL res 336 -16 R180
WINDOW 0 36 76 Left 2
WINDOW 3 36 40 Left 2
SYMATTR InstName R3
SYMATTR Value 10k
SYMBOL voltage 432 -288 R0
SYMATTR InstName V1
SYMATTR Value 5
SYMBOL cap 576 288 R90
WINDOW 0 0 32 VBottom 2
WINDOW 3 32 32 VTop 2
SYMATTR InstName C1
SYMATTR Value 1n
SYMATTR SpiceLine Rser=0.1
SYMBOL OPAx197 704 -240 R0
SYMATTR InstName U3
SYMBOL res 560 -160 R180
WINDOW 0 36 76 Left 2
WINDOW 3 36 40 Left 2
SYMATTR InstName R4
SYMATTR Value 10k
SYMBOL res 560 -240 R180
WINDOW 0 36 76 Left 2
WINDOW 3 36 40 Left 2
SYMATTR InstName R5
SYMATTR Value 10k
SYMBOL OPAx197 912 144 R0
SYMATTR InstName U4
SYMBOL nmos 1776 48 R270
SYMATTR InstName M1
SYMATTR Value BSB012N03LX3
SYMBOL ind 1984 16 R270
WINDOW 0 32 56 VTop 2
WINDOW 3 5 56 VBottom 2
SYMATTR InstName L1
SYMATTR Value 42µ
SYMATTR SpiceLine Rser=0.1
SYMBOL res 2720 16 R0
SYMATTR InstName R6
SYMATTR Value 4
SYMBOL cap 2096 32 R0
SYMATTR InstName C2
SYMATTR Value 22µ
SYMATTR SpiceLine Rser=0.1
SYMBOL cap 2144 32 R0
SYMATTR InstName C3
SYMATTR Value 22µ
SYMATTR SpiceLine Rser=0.1
SYMBOL diode 1920 64 R180
WINDOW 0 24 64 Left 2
WINDOW 3 24 0 Left 2
SYMATTR InstName D1
SYMBOL res 2448 160 R90
WINDOW 0 0 56 VBottom 2
WINDOW 3 32 56 VTop 2
SYMATTR InstName R7
SYMATTR Value 0.2
SYMBOL res 736 -32 R0
SYMATTR InstName R8
SYMATTR Value 10k
SYMBOL OPAx197 1376 -192 R0
SYMATTR InstName bb
SYMBOL res 1280 -224 R90
WINDOW 0 0 56 VBottom 2
WINDOW 3 32 56 VTop 2
SYMATTR InstName R9
SYMATTR Value 1k
SYMBOL res 1296 -192 R180
WINDOW 0 36 76 Left 2
WINDOW 3 36 40 Left 2
SYMATTR InstName R10
SYMATTR Value 25k
SYMBOL res 1296 -64 R180
WINDOW 0 36 76 Left 2
WINDOW 3 36 40 Left 2
SYMATTR InstName R11
SYMATTR Value 1k
SYMBOL res 1328 -64 R270
WINDOW 0 32 56 VTop 2
WINDOW 3 0 56 VBottom 2
SYMATTR InstName R12
SYMATTR Value 25k
SYMBOL voltage 1168 -208 R90
WINDOW 0 -32 56 VBottom 2
WINDOW 3 32 56 VTop 2
SYMATTR InstName V2
SYMATTR Value 0.2
SYMBOL res 1792 32 R0
SYMATTR InstName R14
SYMATTR Value 1k
SYMBOL cap 1408 -32 R90
WINDOW 0 0 32 VBottom 2
WINDOW 3 32 32 VTop 2
SYMATTR InstName C4
SYMATTR Value 1n
TEXT 8 344 Left 2 !.tran 0 10 0 500
TEXT -88 -160 Left 2 !.option method=gear
TEXT 1616 192 Left 2 ;.tran 0 10000 0 50
