Version 4.1
SHEET 1 880 680
WIRE 544 -336 432 -336
WIRE 432 -272 432 -336
WIRE 640 -256 544 -256
WIRE 640 -224 624 -224
WIRE 848 -208 768 -208
WIRE 400 -192 320 -192
WIRE 624 -160 624 -224
WIRE 848 -160 848 -208
WIRE 848 -160 624 -160
WIRE 432 -128 432 -192
WIRE 464 -128 432 -128
WIRE 544 -128 544 -176
WIRE 544 -128 464 -128
WIRE 320 -112 320 -192
WIRE 400 -32 400 -192
WIRE 656 -32 400 -32
WIRE 320 0 320 -32
WIRE 320 0 16 0
WIRE 320 16 320 0
WIRE 320 128 320 96
WIRE 352 128 320 128
WIRE 448 128 432 128
WIRE 16 144 16 0
WIRE 64 144 16 144
WIRE 448 176 448 128
WIRE 480 176 448 176
WIRE 496 176 480 176
WIRE 320 192 320 128
WIRE 320 192 192 192
WIRE 656 192 656 -32
WIRE 656 192 624 192
WIRE 480 304 480 176
WIRE 512 304 480 304
WIRE 656 304 656 192
WIRE 656 304 576 304
FLAG 432 -192 new
FLAG 432 -272 p
FLAG 192 128 p
FLAG 624 128 p
FLAG 624 160 new
FLAG 192 160 new
FLAG 768 -272 p
FLAG 768 -240 new
FLAG 848 -160 g
FLAG 464 -128 0
FLAG 496 144 g
FLAG 64 176 g
SYMBOL OPAx197 128 160 R0
SYMATTR InstName U1
SYMBOL OPAx197 560 160 R0
SYMATTR InstName U2
SYMBOL res 448 112 R90
WINDOW 0 0 56 VBottom 2
WINDOW 3 32 56 VTop 2
SYMATTR InstName R1
SYMATTR Value 2.2k
SYMBOL res 336 112 R180
WINDOW 0 36 76 Left 2
WINDOW 3 36 40 Left 2
SYMATTR InstName R2
SYMATTR Value 11K
SYMBOL res 336 -16 R180
WINDOW 0 36 76 Left 2
WINDOW 3 36 40 Left 2
SYMATTR InstName R3
SYMATTR Value 10k
SYMBOL voltage 432 -288 R0
SYMATTR InstName V1
SYMATTR Value 5
SYMBOL cap 576 288 R90
WINDOW 0 0 32 VBottom 2
WINDOW 3 32 32 VTop 2
SYMATTR InstName C1
SYMATTR Value 1n
SYMBOL OPAx197 704 -240 R0
SYMATTR InstName U3
SYMBOL res 560 -160 R180
WINDOW 0 36 76 Left 2
WINDOW 3 36 40 Left 2
SYMATTR InstName R4
SYMATTR Value 10k
SYMBOL res 560 -240 R180
WINDOW 0 36 76 Left 2
WINDOW 3 36 40 Left 2
SYMATTR InstName R5
SYMATTR Value 10k
TEXT 8 344 Left 2 !.tran 0 10 0 500
TEXT -88 -160 Left 2 !.option method=gear
